Version 4.1
SHEET 1 880 680
WIRE 32 -32 -112 -32
WIRE 32 0 -48 0
WIRE 32 32 16 32
WIRE 240 32 208 32
WIRE 112 48 64 48
WIRE 224 64 208 64
WIRE -48 80 -48 0
WIRE 112 96 80 96
WIRE 240 128 240 32
WIRE 240 128 96 128
WIRE 208 144 112 144
WIRE -128 160 -128 48
WIRE 32 160 32 112
WIRE 112 160 112 144
WIRE 112 160 32 160
WIRE 224 160 224 64
WIRE 256 160 224 160
WIRE -96 176 -96 48
WIRE 112 176 -80 176
WIRE 208 176 208 144
WIRE 208 176 192 176
WIRE 256 176 208 176
WIRE -64 192 -64 160
WIRE -32 192 -32 160
WIRE 96 192 96 128
WIRE 96 192 -32 192
WIRE 256 192 240 192
WIRE -64 208 -96 176
WIRE 224 208 224 160
WIRE 224 208 -64 208
WIRE -32 224 -64 192
WIRE 0 224 0 112
WIRE 0 224 -32 224
WIRE 240 224 240 192
WIRE 240 224 0 224
WIRE -160 240 -176 240
WIRE -48 240 -128 160
WIRE 224 240 -48 240
WIRE -160 272 -176 272
WIRE -80 272 -80 176
WIRE -64 272 -64 208
WIRE -32 272 -64 272
WIRE 112 272 96 272
WIRE 96 288 96 272
WIRE 96 288 48 288
WIRE -160 304 -176 304
WIRE -48 304 -48 240
WIRE -32 304 -48 304
WIRE 224 304 224 240
WIRE 224 304 208 304
WIRE 64 320 64 48
WIRE 112 320 64 320
WIRE 64 336 64 320
WIRE 64 336 -48 336
WIRE 240 336 240 224
WIRE 240 336 208 336
WIRE 80 368 80 96
WIRE 80 368 -48 368
WIRE 112 368 80 368
FLAG -176 240 COMP
IOPIN -176 240 In
FLAG -176 272 CODE
IOPIN -176 272 In
FLAG -176 304 OUTS
IOPIN -176 304 In
FLAG 336 176 OVER
IOPIN 336 176 Out
FLAG -48 368 START
IOPIN -48 368 In
FLAG -48 336 TIME
IOPIN -48 336 In
SYMBOL components\\or2 -160 208 R0
SYMATTR InstName X3
SYMBOL components\\not 144 176 R0
SYMATTR InstName X4
SYMBOL components\\and2 288 112 R0
WINDOW 0 16 24 Invisible 2
SYMATTR InstName A2
SYMBOL components\\Dflipflop 176 48 R0
SYMATTR InstName X1
SYMBOL components\\Dflipflop 176 320 R0
SYMATTR InstName X2
SYMBOL components\\or2 32 -64 R0
SYMATTR InstName X5
SYMBOL components\\and2 -176 16 R270
WINDOW 0 16 24 Invisible 2
SYMATTR InstName A1
SYMBOL components\\and2 -112 128 R270
WINDOW 0 16 24 Invisible 2
SYMATTR InstName A3
SYMBOL components\\and2 -48 80 R270
WINDOW 0 16 24 Invisible 2
SYMATTR InstName A4
SYMBOL components\\or2 -32 224 R0
SYMATTR InstName X6
