Version 4.1
SHEET 1 880 680
WIRE 112 16 48 16
WIRE -16 32 -64 32
WIRE 112 48 64 48
WIRE 240 48 208 48
WIRE -16 64 -48 64
WIRE -64 80 -64 32
WIRE -48 80 -48 64
WIRE 112 80 64 80
WIRE 224 80 208 80
WIRE -48 96 -64 80
WIRE 48 96 48 16
WIRE 48 96 -48 96
WIRE -16 112 -48 80
WIRE 32 112 -16 112
WIRE 112 112 80 112
WIRE -48 128 -64 128
WIRE 240 144 240 48
WIRE 240 144 96 144
WIRE -48 160 -64 160
WIRE 32 160 32 112
WIRE 224 160 224 80
WIRE 256 160 224 160
WIRE 32 176 32 160
WIRE 128 176 32 176
WIRE 256 176 208 176
WIRE -48 192 -64 192
WIRE 256 192 224 192
WIRE 48 208 48 96
WIRE 224 208 224 192
WIRE 224 208 48 208
WIRE 112 240 -48 240
WIRE 96 272 96 144
WIRE 112 272 96 272
WIRE 64 288 64 80
WIRE 64 288 -48 288
WIRE 64 304 64 288
WIRE 112 304 64 304
WIRE 224 304 224 208
WIRE 224 304 208 304
WIRE 80 320 80 112
WIRE 80 320 -48 320
WIRE 80 336 80 320
WIRE 112 336 80 336
FLAG -48 240 1
IOPIN -48 240 In
FLAG -64 128 COMP
IOPIN -64 128 In
FLAG -64 160 CODE
IOPIN -64 160 In
FLAG -64 192 OUTS
IOPIN -64 192 In
FLAG 336 176 OVER
IOPIN 336 176 Out
FLAG -48 320 START
IOPIN -48 320 In
FLAG -48 288 TIME
IOPIN -48 288 In
SYMBOL components\\JKflipflopasy 160 64 R0
SYMATTR InstName X1
SYMBOL components\\JKflipflopasy 160 288 R0
SYMATTR InstName X2
SYMBOL components\\or2 -48 96 R0
SYMATTR InstName X3
SYMBOL components\\not 160 176 R0
SYMATTR InstName X4
SYMBOL components\\and2 16 -16 R0
WINDOW 0 16 24 Invisible 2
SYMATTR InstName A1
SYMBOL components\\and2 288 112 R0
WINDOW 0 16 24 Invisible 2
SYMATTR InstName A2
