Version 4.1
SHEET 1 880 680
WIRE 32 0 -48 0
WIRE 16 48 32 32
WIRE 224 48 208 48
WIRE 112 64 64 64
WIRE 240 80 208 80
WIRE 112 112 80 112
WIRE -112 144 -128 144
WIRE -64 144 -64 80
WIRE -32 144 -32 80
WIRE 0 144 0 128
WIRE 0 144 -32 144
WIRE 32 144 32 128
WIRE 224 144 224 48
WIRE 224 144 32 144
WIRE 0 160 0 144
WIRE 48 160 0 160
WIRE 240 160 240 80
WIRE 256 160 240 160
WIRE -112 176 -128 176
WIRE -32 176 -64 144
WIRE 128 176 -32 176
WIRE 256 176 208 176
WIRE -16 192 32 144
WIRE -16 192 -32 192
WIRE 256 192 240 192
WIRE -112 208 -128 208
WIRE 16 208 -32 208
WIRE 48 208 48 160
WIRE 240 208 240 192
WIRE 240 208 48 208
WIRE -64 224 -32 192
WIRE -48 224 -32 208
WIRE 32 224 16 208
WIRE 224 224 32 224
WIRE -48 240 -48 224
WIRE -32 240 -48 240
WIRE -64 256 -64 224
WIRE 112 256 48 256
WIRE -48 272 -64 256
WIRE -32 272 -48 272
WIRE 224 288 224 224
WIRE 224 288 208 288
WIRE 64 304 64 64
WIRE 64 304 -48 304
WIRE 112 304 64 304
WIRE 240 320 240 208
WIRE 240 320 208 320
WIRE 80 336 80 112
WIRE 80 336 -48 336
WIRE 80 352 80 336
WIRE 112 352 80 352
FLAG -128 144 COMP
IOPIN -128 144 In
FLAG -128 176 CODE
IOPIN -128 176 In
FLAG -128 208 OUTS
IOPIN -128 208 In
FLAG 336 176 OVER
IOPIN 336 176 Out
FLAG -48 336 START
IOPIN -48 336 In
FLAG -48 304 TIME
IOPIN -48 304 In
SYMBOL components\\or2 -112 112 R0
SYMATTR InstName X3
SYMBOL components\\not 160 176 R0
SYMATTR InstName X4
SYMBOL components\\and2 288 112 R0
WINDOW 0 16 24 Invisible 2
SYMATTR InstName A2
SYMBOL components\\Tflipflop 176 64 R0
SYMATTR InstName X1
SYMBOL components\\Tflipflop 176 304 R0
SYMATTR InstName X2
SYMBOL components\\or2 32 -48 R0
SYMATTR InstName X5
SYMBOL components\\and2 -112 48 R270
WINDOW 0 16 24 Invisible 2
SYMATTR InstName A1
SYMBOL components\\and2 -48 96 R270
WINDOW 0 16 24 Invisible 2
SYMATTR InstName A3
SYMBOL components\\or2 -32 192 R0
SYMATTR InstName X6
