Version 4.1
SHEET 1 880 680
WIRE 400 32 176 32
WIRE 400 64 352 64
WIRE 176 112 176 32
WIRE 176 112 32 112
WIRE 208 112 176 112
WIRE 288 112 272 112
WIRE 464 128 464 48
WIRE 480 128 464 128
WIRE 480 160 464 160
WIRE 176 176 32 176
WIRE 208 176 176 176
WIRE 288 176 352 64
WIRE 288 176 272 176
WIRE 352 208 288 112
WIRE 400 208 352 208
WIRE 464 224 464 160
WIRE 176 240 176 176
WIRE 400 240 176 240
FLAG 32 112 MEAS
IOPIN 32 112 In
FLAG 32 176 REF
IOPIN 32 176 In
FLAG 480 48 G
IOPIN 480 48 Out
FLAG 480 224 L
IOPIN 480 224 Out
FLAG 560 144 E
IOPIN 560 144 Out
SYMBOL Digital\\inv 208 48 R0
SYMATTR InstName ~MEAS
SYMBOL Digital\\inv 208 112 R0
SYMATTR InstName ~REF
SYMBOL and2 432 -16 R0
WINDOW 0 16 24 Invisible 2
SYMATTR InstName G
SYMBOL and2 432 160 R0
WINDOW 0 16 24 Invisible 2
SYMATTR InstName L
SYMBOL ELEC2141\\NOR_2141 496 144 R0
SYMATTR InstName X1
